@<TRIPOS>MOLECULE
Penicillin G
 40 42 0 0 0
SMALL
GASTEIGER

@<TRIPOS>ATOM
1   C1   -3.6379  3.2032  0.0399  C.3   1 UNL11 0.1277 
2   C2   -3.4089  1.7038  -0.278  C.2   1 UNL11 0.2402 
3   C3   -2.1406  3.3444  -0.3179 C.3   1 UNL11 0.1005 
4   C4   -1.0128  1.103   -0.5125 C.3   1 UNL11 0.1423 
5   C5   0.0355   1.9568  0.2433  C.3   1 UNL11 0.0419 
6   C6   -0.3649  0.4253  -1.7464 C.2   1 UNL11 0.3774 
7   C7   1.071    2.6592  -0.6503 C.3   1 UNL11 -0.0484
8   C8   0.7475   1.157   1.3386  C.3   1 UNL11 -0.0484
9   C9   -5.269   3.4539  1.9958  C.2   1 UNL11 0.218  
10  C10  -6.4431  3.1063  1.0923  C.3   1 UNL11 0.0491 
11  C11  -7.4899  2.2453  1.7581  C.ar  1 UNL11 -0.0386
12  C12  -8.5032  2.8215  2.5361  C.ar  1 UNL11 -0.0581
13  C13  -9.4686  2.0196  3.1469  C.ar  1 UNL11 -0.0615
14  C14  -9.4278  0.6355  2.9893  C.ar  1 UNL11 -0.0617
15  C15  -8.417   0.0517  2.2279  C.ar  1 UNL11 -0.0615
16  C16  -7.449   0.8512  1.6185  C.ar  1 UNL11 -0.0581
17  N1   -2.1738  1.9648  -0.798  N.am  1 UNL11 -0.2707
18  N2   -4.0225  3.5367  1.4351  N.am  1 UNL11 -0.3015
19  H1   -4.2926  3.7003  -0.6861 H     1 UNL11 0.0622 
20  H2   -1.3747  0.2948  0.1388  H     1 UNL11 0.0632 
21  H3   -1.9144  4.0648  -1.1097 H     1 UNL11 0.064  
22  H4   0.5999   3.2317  -1.4574 H     1 UNL11 0.0244 
23  H5   1.7519   1.936   -1.113  H     1 UNL11 0.0244 
24  H6   1.6992   3.3492  -0.0736 H     1 UNL11 0.0244 
25  H7   0.0362   0.6977  2.0348  H     1 UNL11 0.0244 
26  H8   1.4286   1.7873  1.9226  H     1 UNL11 0.0244 
27  H9   1.3483   0.3499  0.9057  H     1 UNL11 0.0244 
28  H10  -3.2855  3.7029  2.1164  H     1 UNL11 0.1495 
29  H11  -6.8952  4.0497  0.7617  H     1 UNL11 0.0407 
30  H12  -6.1112  2.5977  0.1832  H     1 UNL11 0.0407 
31  H13  -8.5348  3.8988  2.681   H     1 UNL11 0.062  
32  H14  -10.2462 2.4755  3.7527  H     1 UNL11 0.0618 
33  H15  -10.1764 0.0108  3.4676  H     1 UNL11 0.0618 
34  H16  -8.3745  -1.0278 2.1112  H     1 UNL11 0.0618 
35  H17  -6.6586  0.3789  1.0352  H     1 UNL11 0.062  
36  O1   -4.0074  0.6798  -0.0377 O.2   1 UNL11 -0.2734
37  O2   -0.599   0.9662  -2.8661 O.co2 1 UNL11 -0.2442
38  O3   0.3715   -0.5688 -1.4791 O.co2 1 UNL11 -0.2442
39  O4   -5.3991  3.7374  3.1877  O.2   1 UNL11 -0.2754
40  S1   -0.9449  3.3192  1.0714  S.3   1 UNL11 -0.1273

@<TRIPOS>BOND
1   1   2  1 
2   2   17 am
3   17  3  1 
4   3   1  1 
5   1   18 1 
6   1   19 1 
7   2   36 2 
8   17  4  1 
9   4   5  1 
10  4   20 1 
11  4   6  1 
12  5   40 1 
13  40  3  1 
14  3   21 1 
15  5   7  1 
16  7   22 1 
17  7   23 1 
18  7   24 1 
19  5   8  1 
20  8   25 1 
21  8   26 1 
22  8   27 1 
23  6   37 ar
24  6   38 ar
25  18  28 1 
26  18  9  am
27  9   10 1 
28  10  29 1 
29  10  11 1 
30  10  30 1 
31  9   39 2 
32  11  12 ar
33  12  13 ar
34  13  14 ar
35  14  15 ar
36  12  31 1 
37  13  32 1 
38  14  33 1 
39  15  16 ar
40  15  34 1 
41  11  16 ar
42  16  35 1 
