@<TRIPOS>MOLECULE
*****
 40 42 0 0 0
SMALL
GASTEIGER

@<TRIPOS>ATOM
      1 CA         -3.6379    3.2032    0.0399 C.3     1  UNL11       0.1277
      2 C          -3.4089    1.7038   -0.2780 C.2     1  UNL11       0.2402
      3 N          -2.1738    1.9648   -0.7980 N.am    1  UNL11      -0.2707
      4 C          -2.1406    3.3444   -0.3179 C.3     1  UNL11       0.1005
      5 N          -4.0225    3.5367    1.4351 N.am    1  UNL11      -0.3015
      6 HA         -4.2926    3.7003   -0.6861 H       1  UNL11       0.0622
      7 O          -4.0074    0.6798   -0.0377 O.2     1  UNL11      -0.2734
      8 CA         -1.0128    1.1030   -0.5125 C.3     1  UNL11       0.1423
      9 C           0.0355    1.9568    0.2433 C.3     1  UNL11       0.0419
     10 HA         -1.3747    0.2948    0.1388 H       1  UNL11       0.0632
     11 C          -0.3649    0.4253   -1.7464 C.2     1  UNL11       0.3774
     12 S          -0.9449    3.3192    1.0714 S.3     1  UNL11      -0.1273
     13 H          -1.9144    4.0648   -1.1097 H       1  UNL11       0.0640
     14 C           1.0710    2.6592   -0.6503 C.3     1  UNL11      -0.0484
     15 H           0.5999    3.2317   -1.4574 H       1  UNL11       0.0244
     16 H           1.7519    1.9360   -1.1130 H       1  UNL11       0.0244
     17 H           1.6992    3.3492   -0.0736 H       1  UNL11       0.0244
     18 C           0.7475    1.1570    1.3386 C.3     1  UNL11      -0.0484
     19 H           0.0362    0.6977    2.0348 H       1  UNL11       0.0244
     20 H           1.4286    1.7873    1.9226 H       1  UNL11       0.0244
     21 H           1.3483    0.3499    0.9057 H       1  UNL11       0.0244
     22 O          -0.5990    0.9662   -2.8661 O.co2   1  UNL11      -0.2442
     23 OXT         0.3715   -0.5688   -1.4791 O.co2   1  UNL11      -0.2442
     24 H          -3.2855    3.7029    2.1164 H       1  UNL11       0.1495
     25 C          -5.2690    3.4539    1.9958 C.2     1  UNL11       0.2180
     26 C          -6.4431    3.1063    1.0923 C.3     1  UNL11       0.0491
     27 H          -6.8952    4.0497    0.7617 H       1  UNL11       0.0407
     28 C          -7.4899    2.2453    1.7581 C.ar    1  UNL11      -0.0386
     29 H          -6.1112    2.5977    0.1832 H       1  UNL11       0.0407
     30 O          -5.3991    3.7374    3.1877 O.2     1  UNL11      -0.2754
     31 C          -8.5032    2.8215    2.5361 C.ar    1  UNL11      -0.0581
     32 C          -9.4686    2.0196    3.1469 C.ar    1  UNL11      -0.0615
     33 C          -9.4278    0.6355    2.9893 C.ar    1  UNL11      -0.0617
     34 C          -8.4170    0.0517    2.2279 C.ar    1  UNL11      -0.0615
     35 H          -8.5348    3.8988    2.6810 H       1  UNL11       0.0620
     36 H         -10.2462    2.4755    3.7527 H       1  UNL11       0.0618
     37 H         -10.1764    0.0108    3.4676 H       1  UNL11       0.0618
     38 C          -7.4490    0.8512    1.6185 C.ar    1  UNL11      -0.0581
     39 H          -8.3745   -1.0278    2.1112 H       1  UNL11       0.0618
     40 H          -6.6586    0.3789    1.0352 H       1  UNL11       0.0620
@<TRIPOS>BOND
     1     1     2    1
     2     2     3   am
     3     3     4    1
     4     4     1    1
     5     1     5    1
     6     1     6    1
     7     2     7    2
     8     3     8    1
     9     8     9    1
    10     8    10    1
    11     8    11    1
    12     9    12    1
    13    12     4    1
    14     4    13    1
    15     9    14    1
    16    14    15    1
    17    14    16    1
    18    14    17    1
    19     9    18    1
    20    18    19    1
    21    18    20    1
    22    18    21    1
    23    11    22   ar
    24    11    23   ar
    25     5    24    1
    26     5    25   am
    27    25    26    1
    28    26    27    1
    29    26    28    1
    30    26    29    1
    31    25    30    2
    32    28    31   ar
    33    31    32   ar
    34    32    33   ar
    35    33    34   ar
    36    31    35    1
    37    32    36    1
    38    33    37    1
    39    34    38   ar
    40    34    39    1
    41    28    38   ar
    42    38    40    1
